Circuit: * C:\users\karmic\Desktop\Learn-ngspice\LTSpice\BackGate.asc


Date: Fri Sep 28 16:58:31 2018
Total elapsed time: 0.169 seconds.

tnom = 27
temp = 27
method = trap
totiter = 302
traniter = 0
tranpoints = 0
accept = 0
rejected = 0
matrix size = 7
fillins = 0
solver = Normal
Matrix Compiler1: 214 bytes object code size  0.6/0.6/[0.5]
Matrix Compiler2: 455 bytes object code size  0.5/0.6/[0.5]

