Circuit: * C:\users\karmic\Desktop\Learn-ngspice\LTSpice\DiodeRRT.asc

Direct Newton iteration for .op point succeeded.

Date: Fri Sep 28 18:00:41 2018
Total elapsed time: 0.081 seconds.

tnom = 27
temp = 27
method = trap
totiter = 5
traniter = 0
tranpoints = 0
accept = 0
rejected = 0
matrix size = 4
fillins = 0
solver = Normal
Matrix Compiler1:       7 opcodes
Matrix Compiler2: 242 bytes object code size
