Circuit: * C:\users\karmic\Desktop\Learn-ngspice\LTSpice\Draft7.asc

Limiting rise time of source v1 to 1
Limiting fall time of source v1 to 1
Direct Newton iteration for .op point succeeded.

Date: Fri Sep 28 17:50:58 2018
Total elapsed time: 0.033 seconds.

tnom = 27
temp = 27
method = modified trap
totiter = 109
traniter = 106
tranpoints = 54
accept = 53
rejected = 1
matrix size = 2
fillins = 0
solver = Normal
Matrix Compiler1: 36 bytes object code size  0.5/0.5/[0.5]
Matrix Compiler2: 96 bytes object code size  0.5/0.5/[0.5]

