Stray ".ends" card: .ends
Circuit: * C:\users\karmic\Desktop\Learn-ngspice\LTSpice\Inverter.asc

.OP point found by inspection.

Date: Thu Sep 27 15:06:18 2018
Total elapsed time: 0.166 seconds.

tnom = 27
temp = 27
method = modified trap
totiter = 2168
traniter = 2168
tranpoints = 1081
accept = 1080
rejected = 1
matrix size = 5
fillins = 0
solver = Normal
Matrix Compiler1: 204 bytes object code size  0.6/0.5/[0.5]
Matrix Compiler2: 311 bytes object code size  0.5/0.6/[0.5]

