Stray ".ends" card: .ends
Circuit: * C:\users\karmic\Desktop\Learn-ngspice\LTSpice\Inverter.asc

.OP point found by inspection.

Date: Fri Sep 28 18:38:04 2018
Total elapsed time: 0.120 seconds.

tnom = 27
temp = 27
method = modified trap
totiter = 229
traniter = 229
tranpoints = 115
accept = 112
rejected = 3
matrix size = 5
fillins = 0
solver = Normal
Matrix Compiler1: 204 bytes object code size  0.6/0.5/[0.5]
Matrix Compiler2: 311 bytes object code size  0.5/0.6/[0.5]

