Circuit: * C:\users\karmic\Desktop\Learn-ngspice\LTSpice\Draft9.asc

Limiting rise time of source v1 to 0.025
Limiting fall time of source v1 to 0.025
Direct Newton iteration for .op point succeeded.

Date: Thu Sep 27 14:08:18 2018
Total elapsed time: 0.241 seconds.

tnom = 27
temp = 27
method = modified trap
totiter = 23772
traniter = 23768
tranpoints = 11684
accept = 11333
rejected = 351
matrix size = 7
fillins = 0
solver = Normal
Matrix Compiler1: 232 bytes object code size  0.6/0.6/[0.6]
Matrix Compiler2: off  [0.5]/0.6/0.5

