Circuit: * C:\users\karmic\Desktop\Learn-ngspice\LTSpice\TriangleWave.asc

R1: both pins shorted together -- ignoring.
R2: both pins shorted together -- ignoring.
Limiting rise time of source v1 to 0.025
Limiting fall time of source v1 to 0.025
Direct Newton iteration for .op point succeeded.

Date: Thu Sep 27 13:33:47 2018
Total elapsed time: 0.440 seconds.

tnom = 27
temp = 27
method = modified trap
totiter = 21789
traniter = 21749
tranpoints = 10675
accept = 10600
rejected = 75
matrix size = 5
fillins = 0
solver = Normal
Matrix Compiler1: 186 bytes object code size  0.6/0.5/[0.5]
Matrix Compiler2: off  [0.5]/0.7/0.6

