Circuit: * C:\users\karmic\Desktop\Learn-ngspice\LTSpice\TriangleWave\VCSAshlesh.asc

Limiting rise time of source v1 to 5e-006
Limiting fall time of source v1 to 5e-006
Direct Newton iteration for .op point succeeded.

Date: Thu Sep 27 15:14:01 2018
Total elapsed time: 0.073 seconds.

tnom = 27
temp = 27
method = modified trap
totiter = 5380
traniter = 5375
tranpoints = 2199
accept = 1783
rejected = 416
matrix size = 7
fillins = 0
solver = Normal
Matrix Compiler1: 232 bytes object code size  0.7/0.7/[0.6]
Matrix Compiler2: off  [0.6]/0.7/0.6

